<?xml version="1.0" encoding="UTF-8"?>

<!-- generated on 2025-10-29 21:17:34 by Eclipse SUMO netedit Version 1.24.0
<neteditConfiguration xmlns:xsi="http://www.w3.org/2001/XMLSchema-instance" xsi:noNamespaceSchemaLocation="http://sumo.dlr.de/xsd/neteditConfiguration.xsd">

    <input>
        <route-files value="C:\Users\ASUS\Desktop\Course_25_1\SUMO_practice\Pratunam_intersection\myRoute.rou.xml"/>
        <sumo-net-file value="C:\Users\ASUS\Desktop\Course_25_1\SUMO_practice\Pratunam_intersection\osm.net.xml"/>
    </input>

    <output>
        <output-file value="C:\Users\ASUS\Desktop\Course_25_1\SUMO_practice\Pratunam_intersection\osm.net.xml"/>
        <output.street-names value="true"/>
    </output>

    <processing>
        <geometry.min-radius.fix.railways value="false"/>
        <geometry.avoid-overlap value="false"/>
        <geometry.max-grade.fix value="false"/>
        <offset.disable-normalization value="true"/>
        <lefthand value="1"/>
    </processing>

    <junctions>
        <no-turnarounds value="true"/>
        <junctions.corner-detail value="5"/>
        <junctions.limit-turn-speed value="5.50"/>
        <rectangular-lane-cut value="0"/>
    </junctions>

    <pedestrian>
        <walkingareas value="0"/>
    </pedestrian>

</neteditConfiguration>
-->

<net version="1.20" junctionCornerDetail="5" lefthand="true" limitTurnSpeed="5.50" avoidOverlap="0" xmlns:xsi="http://www.w3.org/2001/XMLSchema-instance" xsi:noNamespaceSchemaLocation="http://sumo.dlr.de/xsd/net_file.xsd">

    <location netOffset="-666308.04,-1520434.89" convBoundary="0.00,0.00,571.90,338.09" origBoundary="100.538197,13.748430,100.543489,13.751465" projParameter="+proj=utm +zone=47 +ellps=WGS84 +datum=WGS84 +units=m +no_defs"/>

    <type id="highway.primary" priority="12" numLanes="2" speed="27.78" disallow="tram rail_urban rail rail_electric rail_fast ship container cable_car subway aircraft wheelchair scooter drone" oneway="0"/>
    <type id="highway.primary_link" priority="7" numLanes="1" speed="22.22" disallow="tram rail_urban rail rail_electric rail_fast ship container cable_car subway aircraft wheelchair scooter drone" oneway="0"/>
    <type id="highway.residential" priority="3" numLanes="1" speed="13.89" disallow="tram rail_urban rail rail_electric rail_fast ship container cable_car subway aircraft wheelchair scooter drone" oneway="0"/>
    <type id="highway.secondary" priority="11" numLanes="1" speed="27.78" disallow="tram rail_urban rail rail_electric rail_fast ship container cable_car subway aircraft wheelchair scooter drone" oneway="0"/>
    <type id="highway.secondary_link" priority="6" numLanes="1" speed="22.22" disallow="tram rail_urban rail rail_electric rail_fast ship container cable_car subway aircraft wheelchair scooter drone" oneway="0"/>
    <type id="highway.service" priority="1" numLanes="1" speed="5.56" allow="pedestrian delivery bicycle" oneway="0"/>

    <edge id=":1038379786_0" function="internal">
        <lane id=":1038379786_0_0" index="0" disallow="tram rail_urban rail rail_electric rail_fast ship container cable_car subway aircraft wheelchair scooter drone" speed="16.67" length="17.22" shape="311.77,189.56 311.87,185.44 312.43,180.93 313.52,176.57 315.19,172.87"/>
    </edge>
    <edge id=":1038379786_1" function="internal">
        <lane id=":1038379786_1_0" index="0" disallow="tram rail_urban rail rail_electric rail_fast ship container cable_car subway aircraft wheelchair scooter drone" speed="16.67" length="17.55" shape="302.56,185.48 307.43,183.83 310.81,182.83 314.24,182.04 319.28,181.04"/>
        <lane id=":1038379786_1_1" index="1" disallow="tram rail_urban rail rail_electric rail_fast ship container cable_car subway aircraft wheelchair scooter drone" speed="16.67" length="17.55" shape="301.52,182.45 306.51,180.76 309.97,179.73 313.49,178.92 318.67,177.90"/>
    </edge>
    <edge id=":1038379786_3" function="internal">
        <lane id=":1038379786_3_0" index="0" disallow="tram rail_urban rail rail_electric rail_fast ship container cable_car subway aircraft wheelchair scooter drone" speed="15.13" length="17.06" shape="301.52,182.45 306.61,180.40 310.32,178.23 313.04,175.78 315.19,172.87"/>
    </edge>
    <edge id=":1038379786_4" function="internal">
        <lane id=":1038379786_4_0" index="0" disallow="tram rail_urban rail rail_electric rail_fast ship container cable_car subway aircraft wheelchair scooter drone" speed="12.81" length="15.32" shape="303.83,175.46 305.80,177.93 307.25,181.12 308.17,185.02 308.57,189.64"/>
    </edge>
    <edge id=":1038379786_5" function="internal">
        <lane id=":1038379786_5_0" index="0" disallow="tram rail_urban rail rail_electric rail_fast ship container cable_car subway aircraft wheelchair scooter drone" speed="11.36" length="15.59" shape="303.83,175.46 306.52,177.27 309.89,178.28 313.94,178.49 318.67,177.90"/>
    </edge>
    <edge id=":10578690912_0" function="internal">
        <lane id=":10578690912_0_0" index="0" allow="pedestrian delivery bicycle" speed="3.65" length="4.67" shape="284.75,144.23 284.91,145.67 285.43,146.39 286.33,146.40 287.59,145.71"/>
    </edge>
    <edge id=":11911901794_0" function="internal">
        <lane id=":11911901794_0_0" index="0" disallow="tram rail_urban rail rail_electric rail_fast ship container cable_car subway aircraft wheelchair scooter drone" speed="19.45" length="3.23" shape="295.86,135.26 295.98,136.21 296.04,136.87 296.06,137.52 296.05,138.48"/>
    </edge>
    <edge id=":11911901794_1" function="internal">
        <lane id=":11911901794_1_0" index="0" disallow="tram rail_urban rail rail_electric rail_fast ship container cable_car subway aircraft wheelchair scooter drone" speed="16.67" length="3.34" shape="299.04,134.85 299.42,138.17"/>
    </edge>
    <edge id=":11911901807_0" function="internal">
        <lane id=":11911901807_0_0" index="0" disallow="tram rail_urban rail rail_electric rail_fast ship container cable_car subway aircraft wheelchair scooter drone" speed="16.67" length="9.51" shape="297.58,165.68 288.38,168.15"/>
        <lane id=":11911901807_0_1" index="1" disallow="tram rail_urban rail rail_electric rail_fast ship container cable_car subway aircraft wheelchair scooter drone" speed="16.67" length="9.51" shape="298.40,168.77 289.23,171.24"/>
    </edge>
    <edge id=":11911901807_2" function="internal">
        <lane id=":11911901807_2_0" index="0" disallow="tram rail_urban rail rail_electric rail_fast ship container cable_car subway aircraft wheelchair scooter drone" speed="6.61" length="8.72" shape="296.06,174.97 294.92,172.83 293.41,171.50 291.51,170.97 289.23,171.24"/>
    </edge>
    <edge id=":11911901810_0" function="internal">
        <lane id=":11911901810_0_0" index="0" disallow="tram rail_urban rail rail_electric rail_fast ship container cable_car subway aircraft wheelchair scooter drone" speed="16.67" length="7.56" shape="305.14,163.77 297.77,165.63"/>
        <lane id=":11911901810_0_1" index="1" disallow="tram rail_urban rail rail_electric rail_fast ship container cable_car subway aircraft wheelchair scooter drone" speed="16.67" length="7.56" shape="305.87,166.89 298.59,168.72"/>
    </edge>
    <edge id=":11911901810_2" function="internal">
        <lane id=":11911901810_2_0" index="0" disallow="tram rail_urban rail rail_electric rail_fast ship container cable_car subway aircraft wheelchair scooter drone" speed="6.18" length="7.24" shape="305.87,166.89 304.55,167.54 303.68,168.77 303.26,170.59 303.30,172.98"/>
    </edge>
    <edge id=":11911901810_3" function="internal">
        <lane id=":11911901810_3_0" index="0" disallow="tram rail_urban rail rail_electric rail_fast ship container cable_car subway aircraft wheelchair scooter drone" speed="6.61" length="8.41" shape="301.74,159.17 301.74,161.54 301.08,163.40 299.76,164.77 297.77,165.63"/>
    </edge>
    <edge id=":11911901810_4" function="internal">
        <lane id=":11911901810_4_0" index="0" disallow="tram rail_urban rail rail_electric rail_fast ship container cable_car subway aircraft wheelchair scooter drone" speed="16.67" length="13.89" shape="301.74,159.17 303.30,172.98"/>
    </edge>
    <edge id=":12317285902_0" function="internal">
        <lane id=":12317285902_0_0" index="0" disallow="tram rail_urban rail rail_electric rail_fast ship container cable_car subway aircraft wheelchair scooter drone" speed="16.67" length="2.21" shape="251.58,206.64 252.51,204.62"/>
        <lane id=":12317285902_0_1" index="1" disallow="tram rail_urban rail rail_electric rail_fast ship container cable_car subway aircraft wheelchair scooter drone" speed="16.67" length="2.21" shape="250.54,203.61 251.46,201.60"/>
        <lane id=":12317285902_0_2" index="2" disallow="tram rail_urban rail rail_electric rail_fast ship container cable_car subway aircraft wheelchair scooter drone" speed="16.67" length="2.21" shape="249.49,200.59 250.41,198.58"/>
    </edge>
    <edge id=":12317285902_3" function="internal">
        <lane id=":12317285902_3_0" index="0" disallow="tram rail_urban rail rail_electric rail_fast ship container cable_car subway aircraft wheelchair scooter drone" speed="16.67" length="52.34" shape="248.44,197.57 269.72,190.09 284.95,184.50 294.15,180.79 297.31,178.98"/>
    </edge>
    <edge id=":12626099404_0" function="internal">
        <lane id=":12626099404_0_0" index="0" allow="pedestrian delivery bicycle" speed="5.15" length="4.90" shape="258.52,207.36 258.38,206.04 258.68,204.96 259.42,204.11 260.60,203.51"/>
    </edge>
    <edge id=":12626099404_1" function="internal">
        <lane id=":12626099404_1_0" index="0" allow="pedestrian delivery bicycle" speed="3.65" length="4.67" shape="258.52,207.36 257.45,206.38 256.58,206.19 255.90,206.77 255.42,208.13"/>
    </edge>
    <edge id=":12626099404_2" function="internal">
        <lane id=":12626099404_2_0" index="0" allow="pedestrian delivery bicycle" speed="4.89" length="4.96" shape="252.70,204.56 253.50,204.56 254.22,205.16 254.86,206.35 255.42,208.13"/>
    </edge>
    <edge id=":12626099404_3" function="internal">
        <lane id=":12626099404_3_0" index="0" disallow="tram rail_urban rail rail_electric rail_fast ship container cable_car subway aircraft wheelchair scooter drone" speed="16.67" length="8.03" shape="252.70,204.56 254.99,204.03 256.65,204.03 258.31,204.04 260.60,203.51"/>
        <lane id=":12626099404_3_1" index="1" disallow="tram rail_urban rail rail_electric rail_fast ship container cable_car subway aircraft wheelchair scooter drone" speed="16.67" length="8.03" shape="251.65,201.53 253.94,201.00 255.60,201.01 257.26,201.02 259.55,200.49"/>
        <lane id=":12626099404_3_2" index="2" disallow="tram rail_urban rail rail_electric rail_fast ship container cable_car subway aircraft wheelchair scooter drone" speed="16.67" length="8.03" shape="250.60,198.51 252.89,197.98 254.55,197.99 256.21,197.99 258.51,197.46"/>
    </edge>
    <edge id=":12626099409_0" function="internal">
        <lane id=":12626099409_0_0" index="0" allow="pedestrian delivery bicycle" speed="6.08" length="7.83" shape="327.15,306.50 329.17,305.76 330.46,304.55 331.01,302.88 330.84,300.73"/>
    </edge>
    <edge id=":12626099409_1" function="internal">
        <lane id=":12626099409_1_0" index="0" allow="pedestrian delivery bicycle" speed="3.90" length="2.61" shape="327.72,301.44 327.78,302.16 327.59,302.72 327.16,303.12 326.49,303.36"/>
    </edge>
    <edge id=":12626099409_2" function="internal">
        <lane id=":12626099409_2_0" index="0" disallow="tram rail_urban rail rail_electric rail_fast ship container cable_car subway aircraft wheelchair scooter drone" speed="3.65" length="4.67" shape="327.72,301.44 328.76,302.44 329.63,302.65 330.32,302.08 330.84,300.73"/>
    </edge>
    <edge id=":12855072354_0" function="internal">
        <lane id=":12855072354_0_0" index="0" disallow="tram rail_urban rail rail_electric rail_fast ship container cable_car subway aircraft wheelchair scooter drone" speed="15.28" length="20.01" shape="52.95,267.35 58.63,265.91 62.75,265.84 66.89,265.82 72.63,264.52"/>
        <lane id=":12855072354_0_1" index="1" disallow="tram rail_urban rail rail_electric rail_fast ship container cable_car subway aircraft wheelchair scooter drone" speed="15.28" length="20.85" shape="51.84,264.34 57.67,262.85 62.06,262.69 66.46,262.58 72.35,261.25"/>
    </edge>
    <edge id=":12855072354_2" function="internal">
        <lane id=":12855072354_2_0" index="0" disallow="tram rail_urban rail rail_electric rail_fast ship container cable_car subway aircraft wheelchair scooter drone" speed="15.28" length="20.37" shape="51.84,264.34 71.42,258.15"/>
        <lane id=":12855072354_2_1" index="1" disallow="tram rail_urban rail rail_electric rail_fast ship container cable_car subway aircraft wheelchair scooter drone" speed="15.28" length="20.37" shape="51.84,264.34 57.30,261.95 60.85,259.80 64.40,257.66 69.87,255.31"/>
    </edge>
    <edge id=":12855072364_0" function="internal">
        <lane id=":12855072364_0_0" index="0" allow="pedestrian delivery bicycle" speed="6.07" length="7.79" shape="24.08,268.47 22.65,268.56 21.33,267.77 20.14,266.09 19.07,263.54"/>
    </edge>
    <edge id=":13114249472_0" function="internal">
        <lane id=":13114249472_0_0" index="0" allow="pedestrian delivery bicycle" speed="3.65" length="4.67" shape="232.98,150.15 232.05,151.25 231.88,152.13 232.49,152.79 233.86,153.23"/>
    </edge>
    <edge id=":1637549174_0" function="internal">
        <lane id=":1637549174_0_0" index="0" disallow="tram rail_urban rail rail_electric rail_fast ship container cable_car subway aircraft wheelchair scooter drone" speed="6.31" length="9.04" shape="539.84,125.24 540.03,127.74 539.34,129.63 537.79,130.90 535.37,131.56"/>
        <lane id=":1637549174_0_1" index="1" disallow="tram rail_urban rail rail_electric rail_fast ship container cable_car subway aircraft wheelchair scooter drone" speed="7.14" length="11.90" shape="539.84,125.24 540.31,129.11 539.79,131.99 538.27,133.87 535.76,134.74"/>
    </edge>
    <edge id=":1637549174_2" function="internal">
        <lane id=":1637549174_2_0" index="0" disallow="tram rail_urban rail rail_electric rail_fast ship container cable_car subway aircraft wheelchair scooter drone" speed="3.65" length="4.67" shape="539.84,125.24 540.88,126.24 541.74,126.46 542.44,125.89 542.96,124.55"/>
    </edge>
    <edge id=":1637597378_0" function="internal">
        <lane id=":1637597378_0_0" index="0" disallow="tram rail_urban rail rail_electric rail_fast ship container cable_car subway aircraft wheelchair scooter drone" speed="6.51" length="8.72" shape="18.21,285.79 17.83,283.45 18.27,281.51 19.53,279.98 21.62,278.85"/>
        <lane id=":1637597378_0_1" index="1" disallow="tram rail_urban rail rail_electric rail_fast ship container cable_car subway aircraft wheelchair scooter drone" speed="7.34" length="11.34" shape="18.21,285.79 17.40,282.11 17.51,279.23 18.55,277.14 20.52,275.85"/>
    </edge>
    <edge id=":1637597378_2" function="internal">
        <lane id=":1637597378_2_0" index="0" disallow="tram rail_urban rail rail_electric rail_fast ship container cable_car subway aircraft wheelchair scooter drone" speed="3.65" length="4.67" shape="18.21,285.79 17.09,284.88 16.21,284.74 15.56,285.36 15.16,286.75"/>
    </edge>
    <edge id=":1692209231_0" function="internal">
        <lane id=":1692209231_0_0" index="0" disallow="tram rail_urban rail rail_electric rail_fast ship container cable_car subway aircraft wheelchair scooter drone" speed="19.45" length="3.40" shape="281.46,166.17 280.62,166.74 280.03,167.09 279.40,167.37 278.45,167.73"/>
    </edge>
    <edge id=":1692209231_1" function="internal">
        <lane id=":1692209231_1_0" index="0" disallow="tram rail_urban rail rail_electric rail_fast ship container cable_car subway aircraft wheelchair scooter drone" speed="16.67" length="3.38" shape="282.90,169.66 279.56,170.73"/>
        <lane id=":1692209231_1_1" index="1" disallow="tram rail_urban rail rail_electric rail_fast ship container cable_car subway aircraft wheelchair scooter drone" speed="16.67" length="3.38" shape="283.75,172.74 280.66,173.74"/>
    </edge>
    <edge id=":1692209241_0" function="internal">
        <lane id=":1692209241_0_0" index="0" allow="emergency authority bus bicycle" speed="10.33" length="8.16" shape="328.95,182.99 330.42,181.03 331.46,179.60 332.76,178.60 334.97,177.96"/>
    </edge>
    <edge id=":1692209241_1" function="internal">
        <lane id=":1692209241_1_0" index="0" disallow="tram rail_urban rail rail_electric rail_fast ship container cable_car subway aircraft wheelchair scooter drone" speed="16.67" length="8.25" shape="326.92,179.53 334.97,177.96"/>
        <lane id=":1692209241_1_1" index="1" disallow="tram rail_urban rail rail_electric rail_fast ship container cable_car subway aircraft wheelchair scooter drone" speed="16.67" length="8.25" shape="326.30,176.39 334.44,174.80"/>
    </edge>
    <edge id=":1692209242_0" function="internal">
        <lane id=":1692209242_0_0" index="0" disallow="tram rail_urban rail rail_electric rail_fast ship container cable_car subway aircraft wheelchair scooter drone" speed="22.23" length="4.06" shape="318.19,137.21 317.71,133.19"/>
        <lane id=":1692209242_0_1" index="1" disallow="tram rail_urban rail rail_electric rail_fast ship container cable_car subway aircraft wheelchair scooter drone" speed="22.23" length="4.06" shape="315.01,137.59 314.53,133.57"/>
        <lane id=":1692209242_0_2" index="2" disallow="tram rail_urban rail rail_electric rail_fast ship container cable_car subway aircraft wheelchair scooter drone" speed="22.23" length="4.06" shape="311.83,137.98 311.35,133.95"/>
        <lane id=":1692209242_0_3" index="3" disallow="tram rail_urban rail rail_electric rail_fast ship container cable_car subway aircraft wheelchair scooter drone" speed="22.23" length="4.06" shape="308.66,138.36 308.17,134.33"/>
        <lane id=":1692209242_0_4" index="4" disallow="tram rail_urban rail rail_electric rail_fast ship container cable_car subway aircraft wheelchair scooter drone" speed="22.23" length="4.06" shape="305.48,138.74 305.00,134.71"/>
    </edge>
    <edge id=":1692209242_5" function="internal">
        <lane id=":1692209242_5_0" index="0" disallow="tram rail_urban rail rail_electric rail_fast ship container cable_car subway aircraft wheelchair scooter drone" speed="5.25" length="1.07" shape="320.47,133.80 320.88,132.81"/>
    </edge>
    <edge id=":1692209250_0" function="internal">
        <lane id=":1692209250_0_0" index="0" allow="emergency authority bus bicycle" speed="10.23" length="9.53" shape="312.21,206.61 312.11,203.92 312.72,202.10 313.96,200.45 315.75,198.23"/>
    </edge>
    <edge id=":1692209250_1" function="internal">
        <lane id=":1692209250_1_0" index="0" disallow="tram rail_urban rail rail_electric rail_fast ship container cable_car subway aircraft wheelchair scooter drone" speed="16.67" length="9.40" shape="312.21,206.61 311.91,203.85 311.88,201.94 311.96,200.02 311.96,197.23"/>
    </edge>
    <edge id=":1692209250_2" function="internal">
        <lane id=":1692209250_2_0" index="0" disallow="tram rail_urban rail rail_electric rail_fast ship container cable_car subway aircraft wheelchair scooter drone" speed="3.65" length="1.44" shape="312.21,206.61 311.25,205.54"/>
    </edge>
    <edge id=":1692209250_5" function="internal">
        <lane id=":1692209250_5_0" index="0" disallow="tram rail_urban rail rail_electric rail_fast ship container cable_car subway aircraft wheelchair scooter drone" speed="3.65" length="3.23" shape="311.25,205.54 310.40,205.26 309.66,205.77 309.05,207.07"/>
    </edge>
    <edge id=":1692209250_3" function="internal">
        <lane id=":1692209250_3_0" index="0" disallow="tram rail_urban rail rail_electric rail_fast ship container cable_car subway aircraft wheelchair scooter drone" speed="10.21" length="7.19" shape="305.08,201.36 306.68,202.79 307.81,203.83 308.57,205.07 309.05,207.07"/>
    </edge>
    <edge id=":1692209250_4" function="internal">
        <lane id=":1692209250_4_0" index="0" disallow="tram rail_urban rail rail_electric rail_fast ship container cable_car subway aircraft wheelchair scooter drone" speed="16.67" length="9.78" shape="308.77,197.31 308.76,200.22 308.69,202.21 308.72,204.19 309.05,207.07"/>
    </edge>
    <edge id=":1714885696_0" function="internal">
        <lane id=":1714885696_0_0" index="0" disallow="pedestrian tram rail_urban rail rail_electric rail_fast ship container cable_car subway aircraft wheelchair scooter drone" speed="16.67" length="0.30" shape="485.94,148.32 486.25,148.27"/>
        <lane id=":1714885696_0_1" index="1" disallow="pedestrian tram rail_urban rail rail_electric rail_fast ship container cable_car subway aircraft wheelchair scooter drone" speed="16.67" length="0.30" shape="485.53,145.14 485.81,145.10"/>
    </edge>
    <edge id=":1714885698_0" function="internal">
        <lane id=":1714885698_0_0" index="0" disallow="pedestrian tram rail_urban rail rail_electric rail_fast ship container cable_car subway aircraft wheelchair scooter drone" speed="16.67" length="0.30" shape="149.25,230.28 149.53,230.17"/>
        <lane id=":1714885698_0_1" index="1" disallow="pedestrian tram rail_urban rail rail_electric rail_fast ship container cable_car subway aircraft wheelchair scooter drone" speed="16.67" length="0.30" shape="148.17,227.26 148.45,227.16"/>
    </edge>
    <edge id=":1714885700_0" function="internal">
        <lane id=":1714885700_0_0" index="0" disallow="tram rail_urban rail rail_electric rail_fast ship container cable_car subway aircraft wheelchair scooter drone" speed="6.82" length="9.43" shape="114.35,256.82 114.03,254.18 114.54,252.05 115.89,250.42 118.07,249.29"/>
    </edge>
    <edge id=":1714885700_1" function="internal">
        <lane id=":1714885700_1_0" index="0" disallow="tram rail_urban rail rail_electric rail_fast ship container cable_car subway aircraft wheelchair scooter drone" speed="3.65" length="4.67" shape="114.35,256.82 113.28,255.86 112.40,255.67 111.73,256.25 111.25,257.61"/>
    </edge>
    <edge id=":1714885700_2" function="internal">
        <lane id=":1714885700_2_0" index="0" disallow="tram rail_urban rail rail_electric rail_fast ship container cable_car subway aircraft wheelchair scooter drone" speed="6.35" length="9.04" shape="104.41,253.88 106.87,253.43 108.83,253.91 110.29,255.30 111.25,257.61"/>
    </edge>
    <edge id=":1714885700_3" function="internal">
        <lane id=":1714885700_3_0" index="0" disallow="tram rail_urban rail rail_electric rail_fast ship container cable_car subway aircraft wheelchair scooter drone" speed="16.67" length="14.41" shape="104.41,253.88 118.07,249.29"/>
        <lane id=":1714885700_3_1" index="1" disallow="tram rail_urban rail rail_electric rail_fast ship container cable_car subway aircraft wheelchair scooter drone" speed="16.67" length="14.41" shape="103.39,250.85 117.04,246.25"/>
    </edge>
    <edge id=":1942897832_0" function="internal">
        <lane id=":1942897832_0_0" index="0" allow="pedestrian delivery bicycle" speed="3.65" length="4.67" shape="407.65,106.53 406.71,105.44 405.86,105.14 405.12,105.63 404.47,106.92"/>
    </edge>
    <edge id=":1942897832_1" function="internal">
        <lane id=":1942897832_1_0" index="0" allow="pedestrian delivery bicycle" speed="5.56" length="3.42" shape="405.64,103.84 405.54,104.78 405.08,105.38 404.61,105.98 404.47,106.92"/>
    </edge>
    <edge id=":1942897836_0" function="internal">
        <lane id=":1942897836_0_0" index="0" allow="pedestrian delivery bicycle" speed="5.02" length="5.02" shape="415.67,146.42 414.29,146.40 413.26,145.94 412.57,145.04 412.23,143.70"/>
    </edge>
    <edge id=":1942897836_1" function="internal">
        <lane id=":1942897836_1_0" index="0" disallow="tram rail_urban rail rail_electric rail_fast ship container cable_car subway aircraft wheelchair scooter drone" speed="16.67" length="9.38" shape="415.67,146.42 406.36,147.62"/>
        <lane id=":1942897836_1_1" index="1" disallow="tram rail_urban rail rail_electric rail_fast ship container cable_car subway aircraft wheelchair scooter drone" speed="16.67" length="9.38" shape="416.07,149.60 406.78,150.79"/>
    </edge>
    <edge id=":1942897836_3" function="internal">
        <lane id=":1942897836_3_0" index="0" allow="pedestrian delivery bicycle" speed="5.11" length="5.08" shape="409.05,144.04 409.01,145.46 408.55,146.52 407.66,147.25 406.36,147.62"/>
    </edge>
    <edge id=":1942897836_4" function="internal">
        <lane id=":1942897836_4_0" index="0" allow="pedestrian delivery bicycle" speed="3.65" length="4.67" shape="409.05,144.04 409.97,145.15 410.81,145.46 411.56,144.98 412.23,143.70"/>
    </edge>
    <edge id=":2110817774_0" function="internal">
        <lane id=":2110817774_0_0" index="0" disallow="tram rail_urban rail rail_electric rail_fast ship container cable_car subway aircraft wheelchair scooter drone" speed="6.49" length="9.04" shape="475.59,138.93 473.14,138.88 471.29,138.03 470.06,136.40 469.43,133.98"/>
    </edge>
    <edge id=":2110817774_1" function="internal">
        <lane id=":2110817774_1_0" index="0" disallow="tram rail_urban rail rail_electric rail_fast ship container cable_car subway aircraft wheelchair scooter drone" speed="16.67" length="14.40" shape="475.59,138.93 461.30,140.71"/>
        <lane id=":2110817774_1_1" index="1" disallow="tram rail_urban rail rail_electric rail_fast ship container cable_car subway aircraft wheelchair scooter drone" speed="16.67" length="14.40" shape="475.99,142.11 461.70,143.88"/>
    </edge>
    <edge id=":2110817774_3" function="internal">
        <lane id=":2110817774_3_0" index="0" disallow="tram rail_urban rail rail_electric rail_fast ship container cable_car subway aircraft wheelchair scooter drone" speed="6.61" length="9.28" shape="466.23,134.22 466.18,136.79 465.33,138.73 463.71,140.04 461.30,140.71"/>
    </edge>
    <edge id=":2110817774_4" function="internal">
        <lane id=":2110817774_4_0" index="0" disallow="tram rail_urban rail rail_electric rail_fast ship container cable_car subway aircraft wheelchair scooter drone" speed="3.65" length="4.68" shape="466.23,134.22 467.12,135.35 467.95,135.69 468.72,135.23 469.43,133.98"/>
    </edge>
    <edge id=":2193689927_0" function="internal">
        <lane id=":2193689927_0_0" index="0" disallow="tram rail_urban rail rail_electric rail_fast ship container cable_car subway aircraft wheelchair scooter drone" speed="3.65" length="4.67" shape="564.29,200.64 565.37,201.60 566.25,201.78 566.92,201.18 567.39,199.82"/>
    </edge>
    <edge id=":2302770373_0" function="internal">
        <lane id=":2302770373_0_0" index="0" disallow="tram rail_urban rail rail_electric rail_fast ship container cable_car subway aircraft wheelchair scooter drone" speed="22.23" length="8.18" shape="312.79,119.08 312.75,116.66 313.10,114.99 313.44,113.33 313.38,110.91"/>
        <lane id=":2302770373_0_1" index="1" disallow="tram rail_urban rail rail_electric rail_fast ship container cable_car subway aircraft wheelchair scooter drone" speed="22.23" length="8.18" shape="309.62,119.46 309.58,117.05 309.93,115.39 310.27,113.73 310.20,111.33"/>
        <lane id=":2302770373_0_2" index="2" disallow="tram rail_urban rail rail_electric rail_fast ship container cable_car subway aircraft wheelchair scooter drone" speed="22.23" length="8.18" shape="306.44,119.84 306.40,117.44 306.75,115.79 307.09,114.14 307.03,111.75"/>
        <lane id=":2302770373_0_3" index="3" disallow="tram rail_urban rail rail_electric rail_fast ship container cable_car subway aircraft wheelchair scooter drone" speed="22.23" length="8.18" shape="303.26,120.22 303.23,117.83 303.58,116.19 303.92,114.55 303.86,112.17"/>
    </edge>
    <edge id=":2302770376_0" function="internal">
        <lane id=":2302770376_0_0" index="0" disallow="tram rail_urban rail rail_electric rail_fast ship container cable_car subway aircraft wheelchair scooter drone" speed="16.67" length="8.18" shape="307.23,88.88 307.16,86.46 307.49,84.79 307.80,83.12 307.69,80.70"/>
        <lane id=":2302770376_0_1" index="1" disallow="tram rail_urban rail rail_electric rail_fast ship container cable_car subway aircraft wheelchair scooter drone" speed="16.67" length="8.18" shape="304.06,89.30 303.99,86.89 304.32,85.24 304.63,83.58 304.52,81.18"/>
        <lane id=":2302770376_0_2" index="2" disallow="tram rail_urban rail rail_electric rail_fast ship container cable_car subway aircraft wheelchair scooter drone" speed="16.67" length="8.18" shape="300.89,89.72 300.82,87.33 301.15,85.69 301.46,84.04 301.36,81.66"/>
    </edge>
    <edge id=":2366703472_0" function="internal">
        <lane id=":2366703472_0_0" index="0" allow="pedestrian delivery bicycle" speed="7.10" length="10.59" shape="291.45,16.28 291.86,14.98 293.48,13.80 296.33,12.72 300.39,11.75"/>
    </edge>
    <edge id=":2366703474_0" function="internal">
        <lane id=":2366703474_0_0" index="0" allow="pedestrian delivery bicycle" speed="5.03" length="5.02" shape="334.06,46.11 332.68,46.13 331.63,45.70 330.92,44.82 330.54,43.49"/>
    </edge>
    <edge id=":2366703474_1" function="internal">
        <lane id=":2366703474_1_0" index="0" allow="pedestrian delivery bicycle" speed="5.56" length="6.20" shape="331.40,49.64 330.54,43.49"/>
    </edge>
    <edge id=":2367381657_0" function="internal">
        <lane id=":2367381657_0_0" index="0" disallow="tram rail_urban rail rail_electric rail_fast ship container cable_car subway aircraft wheelchair scooter drone" speed="13.89" length="14.62" shape="539.08,107.05 535.67,92.84"/>
    </edge>
    <edge id=":2367381657_1" function="internal">