<?xml version="1.0" encoding="UTF-8"?>

<!-- generated on 2025-10-29 21:37:44 by Eclipse SUMO sumo Version 1.24.0
-->

<sumoConfiguration xmlns:xsi="http://www.w3.org/2001/XMLSchema-instance" xsi:noNamespaceSchemaLocation="http://sumo.dlr.de/xsd/sumoConfiguration.xsd">

    <input>
        <net-file value="osm.net.xml"/>
        <route-files value="myRoute.rou.xml"/>
    </input>

</sumoConfiguration>
