<?xml version="1.0" encoding="UTF-8"?>

<!-- generated on 2025-10-29 20:34:27 by Eclipse SUMO polyconvert Version 1.24.0
<polyconvertConfiguration xmlns:xsi="http://www.w3.org/2001/XMLSchema-instance" xsi:noNamespaceSchemaLocation="http://sumo.dlr.de/xsd/polyconvertConfiguration.xsd">

    <input>
        <net-file value="osm.net.xml.gz"/>
        <osm-files value="osm_bbox.osm.xml.gz"/>
        <osm.keep-full-type value="true"/>
        <osm.merge-relations value="1"/>
        <type-file value="${SUMO_HOME}\data\typemap\osmPolyconvert.typ.xml"/>
    </input>

    <output>
        <output-file value="osm.poly.xml.gz"/>
    </output>

    <report>
        <verbose value="true"/>
    </report>

</polyconvertConfiguration>
-->

<additional xmlns:xsi="http://www.w3.org/2001/XMLSchema-instance" xsi:noNamespaceSchemaLocation="http://sumo.dlr.de/xsd/additional_file.xsd">
    <location netOffset="-666308.04,-1520434.89" convBoundary="-2.51,-0.00,571.90,339.41" origBoundary="100.538177,13.748430,100.543489,13.751497" projParameter="+proj=utm +zone=47 +ellps=WGS84 +datum=WGS84 +units=m +no_defs"/>

    <poly id="1050721120" type="landuse.construction" color="194,194,130" fill="1" layer="-3.00" shape="219.073558,223.028970 286.600718,199.187757 294.576366,203.431745 324.723529,335.930590 239.165180,316.365699 219.073558,223.028970"/>
    <poly id="1153294649" type="natural.water" color="181,209,209" fill="1" layer="-4.00" shape="127.312186,23.214857 154.918706,16.952354 170.554415,13.921326 176.529156,13.129749 178.004907,17.431736 177.295412,23.534143 172.974257,24.491169 165.480584,27.740158 156.140305,33.953378 154.583637,44.011033 157.030830,50.299554 161.807312,55.939158 165.446676,58.440586 170.562635,63.418563 169.859715,70.184809 164.858618,72.619974 159.883035,72.754137 140.337281,64.873910 136.980155,68.979075 138.878527,84.999788 135.219097,85.640211 131.255187,54.372149 127.312186,23.214857"/>
    <poly id="1153294654" type="natural.water" color="181,209,209" fill="1" layer="-4.00" shape="131.763481,69.609552 111.932618,72.503173 111.941105,74.561000 97.843594,75.510919 97.692842,78.795754 112.257127,77.572234 112.239322,80.360070 97.773850,81.351892 97.755340,84.250357 113.075131,83.263991 113.056619,86.162456 97.737607,87.027130 97.951640,90.767890 113.154803,89.415691 113.386501,92.083424 134.545231,89.552313 131.763481,69.609552"/>
    <poly id="1153294655" type="natural.water" color="181,209,209" fill="1" layer="-4.00" shape="51.672442,89.620516 23.629997,94.729752 24.852277,106.553147 52.757595,102.593620 68.671436,100.028972 68.532385,94.706641 72.706653,94.733294 72.643624,99.523296 94.169957,98.698247 93.110338,85.116821 71.900713,85.457109 72.405616,92.762105 68.446289,92.947028 67.966976,86.715334 51.672442,89.620516"/>
    <poly id="1201627782" type="natural.wood" color="140,196,107" fill="1" layer="-4.00" shape="192.841708,26.034205 196.165201,25.502275 198.476051,19.277341 198.695730,15.362338 198.829531,13.039901 204.877928,5.798899 210.470572,3.876431 215.608736,3.687999 221.849451,5.276741 227.158799,8.762419 231.167185,14.441381 231.480225,17.917257 230.680530,22.901694 229.988907,27.897885 230.510595,32.569931 232.898833,34.543398 237.927435,34.575536 241.548428,33.182577 243.203573,29.719279 244.125342,22.556153 241.568687,13.091755 232.014814,1.956335 189.598725,2.116764 184.531950,8.058572 183.186677,13.802891 183.808883,19.670413 185.527705,23.166333 187.378770,24.583199 192.841708,26.034205"/>
    <poly id="1201627784" type="amenity.theatre" color="237,199,199" fill="1" layer="-1.00" shape="98.826899,50.237576 97.095809,36.806748 95.633240,25.357964 113.383570,23.114837 116.566399,47.994383 98.826899,50.237576"/>
    <poly id="1201627785" type="landuse.recreation_ground" color="194,194,130" fill="1" layer="-3.00" shape="193.010257,77.512802 196.142411,76.459675 201.551833,76.129152 206.938141,77.723496 210.656873,79.650147 215.435462,83.265193 219.146419,84.716073 223.231706,83.436712 225.287817,81.535902 223.523913,76.634651 224.390895,71.274492 224.563230,62.922803 223.764898,57.540938 220.561010,51.203320 214.482878,44.482246 208.016489,40.978112 202.380599,39.514934 195.901412,39.705863 190.478270,42.182580 187.586498,44.542712 187.193652,48.478736 188.246090,53.021412 191.447652,59.724099 193.093385,64.502896 194.013152,71.191004 193.010257,77.512802"/>
    <poly id="1201627786" type="landuse.grass" color="194,194,130" fill="1" layer="-3.00" shape="196.165201,25.502275 210.536139,29.156485 221.115039,30.507430 230.510595,32.569931 229.988907,27.897885 230.680530,22.901694 231.480225,17.917257 226.590649,18.129402 224.713366,14.046111 221.736212,11.150628 215.549145,9.628609 210.551143,9.884317 205.941108,12.045392 203.721719,15.803794 198.695730,15.362338 198.476051,19.277341 196.165201,25.502275"/>
    <poly id="1201627787" type="amenity.theatre" color="237,199,199" fill="1" layer="-1.00" shape="198.695730,15.362338 203.721719,15.803794 205.941108,12.045392 210.551143,9.884317 215.549145,9.628609 221.736212,11.150628 224.713366,14.046111 226.590649,18.129402 231.480225,17.917257 231.167185,14.441381 227.158799,8.762419 221.849451,5.276741 215.608736,3.687999 210.470572,3.876431 204.877928,5.798899 198.829531,13.039901 198.695730,15.362338"/>
    <poly id="1201627789" type="building.yes" color="255,230,230" fill="1" layer="-1.00" shape="5.500709,49.608580 3.127416,33.429970 39.292436,28.206605 41.654894,44.385151 5.500709,49.608580"/>
    <poly id="1201627790" type="leisure.garden" color="207,245,201" fill="1" layer="-2.00" shape="14.649740,53.019150 73.983447,45.509800 73.191094,40.880285 97.095809,36.806748 98.826899,50.237576 89.131679,54.457159 79.088650,60.643790 72.345644,66.585976 71.098065,68.890238 60.933892,73.726380 52.818342,79.527047 44.725396,81.787609 34.300414,85.128551 17.021089,88.138100 14.649740,53.019150"/>
    <poly id="1201627791" type="natural.wood" color="140,196,107" fill="1" layer="-4.00" shape="116.566399,47.994383 117.796909,58.523434 111.716795,58.882881 102.643348,60.572936 93.291848,63.467117 84.496111,65.701052 71.098065,68.890238 72.345644,66.585976 79.088650,60.643790 89.131679,54.457159 98.826899,50.237576 116.566399,47.994383"/>
    <poly id="1201627792" type="natural.wood" color="140,196,107" fill="1" layer="-4.00" shape="146.025650,98.752864 144.897908,73.831120 151.175648,78.086337 159.372585,83.249943 165.781504,85.592052 170.261400,88.563510 173.206530,91.392403 177.700349,92.184482 181.309596,90.935263 187.101752,89.943385 195.708208,90.252833 204.452774,90.950381 212.164905,90.745208 219.887642,88.880610 228.119704,88.546005 241.875335,88.633922 248.703752,86.254704 256.566300,84.512707 262.106206,82.379712 268.015056,83.435308 272.379104,84.226573 274.542281,87.570456 277.989225,93.102015 242.536397,95.187620 146.151608,102.736455 146.025650,98.752864"/>
    <poly id="1201627793" type="natural.wood" color="140,196,107" fill="1" layer="-4.00" shape="268.626116,35.214287 260.902020,35.596382 257.109268,38.481786 255.129548,43.657820 252.776631,49.694405 252.741912,55.126263 256.478232,61.069011 257.782844,66.763886 258.965464,71.241019 263.580009,71.757302 267.851617,70.091922 271.167700,65.643547 273.297253,64.097235 268.626116,35.214287"/>
    <poly id="1201627794" type="natural.wood" color="140,196,107" fill="1" layer="-4.00" shape="241.991594,2.761337 246.477151,6.540464 250.248977,6.929660 255.302187,4.804615"/>
    <poly id="1201627795" type="natural.wood" color="140,196,107" fill="1" layer="-4.00" shape="33.692021,2.548278 36.946373,24.706693 44.693926,24.037036 46.399956,38.009798 66.041410,35.988915 65.703966,32.944356 69.123581,32.601100 68.092381,24.728517 75.489919,22.983495 74.472495,12.953658 124.582796,5.230637 33.692021,2.548278"/>
    <poly id="1232616671" type="man_made.bridge" color="255,230,230" fill="1" layer="-1.00" shape="289.175554,89.091173 312.512709,85.832890 316.527160,114.235932 309.143550,115.494188 296.740046,117.052249 293.190028,117.494210 289.175554,89.091173"/>
    <poly id="1361241946" type="natural.wood" color="140,196,107" fill="1" layer="-4.00" shape="527.708633,322.969025 546.671861,296.804025 545.484673,294.738646 538.179970,281.991181 530.216789,294.386417 522.511667,301.948638 527.708633,322.969025"/>
    <poly id="1363612934" type="landuse.retail" color="194,194,130" fill="0" layer="-3.00" shape="324.723529,335.930590 326.603339,336.230259"/>
    <poly id="1363629862" type="building.yes" color="255,230,230" fill="1" layer="-1.00" shape="326.453688,339.338091"/>
    <poly id="1363629874" type="landuse.retail" color="194,194,130" fill="1" layer="-3.00" shape="338.090878,264.823715 325.409675,210.045630 329.545984,197.404600 344.099769,185.980781 551.010124,153.008707 545.484673,294.738646 468.450640,313.639411 451.986337,241.699945 338.090878,264.823715"/>
    <poly id="1363629875" type="landuse.retail" color="194,194,130" fill="1" layer="-3.00" shape="287.453246,111.516538 178.334631,130.013945 123.993581,133.041105 102.364227,136.454279 72.142925,137.290176 51.830613,132.602409 36.808772,132.661393 69.540762,239.951974 280.090697,163.610808 286.347529,155.906500 290.665236,148.720832 291.047677,136.265999 287.453246,111.516538"/>
    <poly id="1368785565" type="landuse.commercial" color="209,209,204" fill="1" layer="-3.00" shape="24.700918,259.015377 69.540762,239.951974 36.808772,132.661393 15.775839,135.823989"/>
    <poly id="228097438" type="building.yes" color="255,230,230" fill="1" layer="-1.00" shape="498.341065,129.659793 502.313690,129.087806 499.224491,108.224750 495.240978,108.807732 498.341065,129.659793"/>
    <poly id="228097439" type="building.yes" color="255,230,230" fill="1" layer="-1.00" shape="502.313690,129.087806 506.286385,128.504756 503.197190,107.641699 499.224491,108.224750 502.313690,129.087806"/>
    <poly id="228097440" type="building.yes" color="255,230,230" fill="1" layer="-1.00" shape="506.286385,128.504756 510.259082,127.921707 507.169889,107.058649 503.197190,107.641699 506.286385,128.504756"/>
    <poly id="228097441" type="building.yes" color="255,230,230" fill="1" layer="-1.00" shape="510.259082,127.921707 514.231778,127.338659 511.142518,106.486663 507.169889,107.058649 510.259082,127.921707"/>
    <poly id="228097442" type="building.yes" color="255,230,230" fill="1" layer="-1.00" shape="514.231778,127.338659 518.204475,126.755611 515.115217,105.903614 511.142518,106.486663 514.231778,127.338659"/>
    <poly id="228097443" type="building.yes" color="255,230,230" fill="1" layer="-1.00" shape="518.204475,126.755611 522.177171,126.172563 519.087917,105.320566 515.115217,105.903614 518.204475,126.755611"/>
    <poly id="228097444" type="building.yes" color="255,230,230" fill="1" layer="-1.00" shape="522.177171,126.172563 526.160683,125.589586 523.060617,104.737518 519.087917,105.320566 522.177171,126.172563"/>
    <poly id="228097445" type="building.yes" color="255,230,230" fill="1" layer="-1.00" shape="526.160683,125.589586 530.133309,125.017602 527.033318,104.154471 523.060617,104.737518 526.160683,125.589586"/>
    <poly id="228097446" type="building.yes" color="255,230,230" fill="1" layer="-1.00" shape="530.133309,125.017602 534.106007,124.434557 531.016832,103.571494 527.033318,104.154471 530.133309,125.017602"/>
    <poly id="228097447" type="building.yes" color="255,230,230" fill="1" layer="-1.00" shape="534.106007,124.434557 538.078705,123.851512 534.989533,102.988448 531.016832,103.571494 534.106007,124.434557"/>
    <poly id="228097448" type="building.yes" color="255,230,230" fill="1" layer="-1.00" shape="353.927213,145.872776 357.714857,145.476597 356.193625,131.383279 352.405909,131.790521 353.927213,145.872776"/>
    <poly id="228097449" type="building.yes" color="255,230,230" fill="1" layer="-1.00" shape="357.714857,145.476597 361.502572,145.069355 359.981342,130.976037 356.193625,131.383279 357.714857,145.476597"/>
    <poly id="228097450" type="building.yes" color="255,230,230" fill="1" layer="-1.00" shape="361.502572,145.069355 365.290287,144.662114 363.769059,130.568796 359.981342,130.976037 361.502572,145.069355"/>
    <poly id="228097451" type="building.yes" color="255,230,230" fill="1" layer="-1.00" shape="365.290287,144.662114 369.078002,144.254874 367.545891,130.172548 363.769059,130.568796 365.290287,144.662114"/>
    <poly id="228097452" type="building.yes" color="255,230,230" fill="1" layer="-1.00" shape="369.078002,144.254874 372.865647,143.858697 371.333609,129.765308 367.545891,130.172548 369.078002,144.254874"/>
    <poly id="228097453" type="building.yes" color="255,230,230" fill="1" layer="-1.00" shape="372.865647,143.858697 376.642548,143.451389 375.121326,129.358068 371.333609,129.765308 372.865647,143.858697"/>
    <poly id="228097454" type="building.yes" color="255,230,230" fill="1" layer="-1.00" shape="376.642548,143.451389 380.430264,143.044150 378.909044,128.950829 375.121326,129.358068 376.642548,143.451389"/>
    <poly id="228097455" type="building.yes" color="255,230,230" fill="1" layer="-1.00" shape="380.430264,143.044150 384.217980,142.636912 382.696691,128.554653 378.909044,128.950829 380.430264,143.044150"/>
    <poly id="228097456" type="building.yes" color="255,230,230" fill="1" layer="-1.00" shape="384.217980,142.636912 388.005625,142.240737 386.484409,128.147415 382.696691,128.554653 384.217980,142.636912"/>
    <poly id="228097457" type="building.yes" color="255,230,230" fill="1" layer="-1.00" shape="388.005625,142.240737 391.793341,141.833500 390.272127,127.740178 386.484409,128.147415 388.005625,142.240737"/>
    <poly id="228097458" type="building.yes" color="255,230,230" fill="1" layer="-1.00" shape="391.793341,141.833500 395.581058,141.426263 394.049031,127.332872 390.272127,127.740178 391.793341,141.833500"/>
    <poly id="228097459" type="building.yes" color="255,230,230" fill="1" layer="-1.00" shape="395.581058,141.426263 399.368774,141.019027 397.836679,126.936698 394.049031,127.332872 395.581058,141.426263"/>
    <poly id="228097460" type="building.yes" color="255,230,230" fill="1" layer="-1.00" shape="399.368774,141.019027 403.156420,140.622854 401.624398,126.529462 397.836679,126.936698 399.368774,141.019027"/>
    <poly id="228097461" type="amenity.restaurant" color="237,199,199" fill="1" layer="-1.00" shape="414.790775,139.270127 419.238794,138.767548 417.660125,125.204895 413.222919,125.707542 414.790775,139.270127"/>
    <poly id="228097461#1" type="building.yes" color="255,230,230" fill="1" layer="-1.00" shape="414.790775,139.270127 419.238794,138.767548 417.660125,125.204895 413.222919,125.707542 414.790775,139.270127"/>
    <poly id="228097462" type="building.yes" color="255,230,230" fill="1" layer="-1.00" shape="419.238794,138.767548 423.676069,138.253839 422.108217,124.691254 417.660125,125.204895 419.238794,138.767548"/>
    <poly id="228097463" type="building.yes" color="255,230,230" fill="1" layer="-1.00" shape="423.676069,138.253839 428.124088,137.751262 426.545424,124.188607 422.108217,124.691254 423.676069,138.253839"/>
    <poly id="228097464" type="building.yes" color="255,230,230" fill="1" layer="-1.00" shape="428.124088,137.751262 432.561364,137.237554 430.993517,123.674968 426.545424,124.188607 428.124088,137.751262"/>
    <poly id="228097465" type="building.yes" color="255,230,230" fill="1" layer="-1.00" shape="432.561364,137.237554 437.009384,136.734979 435.430724,123.172323 430.993517,123.674968 432.561364,137.237554"/>
    <poly id="228097466" type="building.yes" color="255,230,230" fill="1" layer="-1.00" shape="437.009384,136.734979 441.446590,136.232336 439.878817,122.658686 435.430724,123.172323 437.009384,136.734979"/>
    <poly id="228097467" type="building.yes" color="255,230,230" fill="1" layer="-1.00" shape="441.446590,136.232336 445.894681,135.718699 444.316025,122.156042 439.878817,122.658686 441.446590,136.232336"/>
    <poly id="228097468" type="building.yes" color="255,230,230" fill="1" layer="-1.00" shape="445.894681,135.718699 450.331887,135.216057 448.764048,121.653469 444.316025,122.156042 445.894681,135.718699"/>
    <poly id="228097469" type="building.yes" color="255,230,230" fill="1" layer="-1.00" shape="450.331887,135.216057 454.779978,134.702422 453.201327,121.139764 448.764048,121.653469 450.331887,135.216057"/>
    <poly id="228097470" type="building.yes" color="255,230,230" fill="1" layer="-1.00" shape="454.779978,134.702422 459.217185,134.199781 457.649350,120.637192 453.201327,121.139764 454.779978,134.702422"/>
    <poly id="228097471" type="building.yes" color="255,230,230" fill="1" layer="-1.00" shape="459.217185,134.199781 463.654463,133.686078 462.086630,120.123489 457.649350,120.637192 459.217185,134.199781"/>
    <poly id="228097472" type="building.yes" color="255,230,230" fill="1" layer="-1.00" shape="470.521459,133.730030 474.494082,133.158038 471.404862,112.294988 467.421351,112.877974 470.521459,133.730030"/>
    <poly id="228097473" type="building.yes" color="255,230,230" fill="1" layer="-1.00" shape="474.494082,133.158038 478.466776,132.574985 475.377559,111.711933 471.404862,112.294988 474.494082,133.158038"/>
    <poly id="228097474" type="building.yes" color="255,230,230" fill="1" layer="-1.00" shape="478.466776,132.574985 482.439470,131.991931 479.350257,111.128879 475.377559,111.711933 478.466776,132.574985"/>
    <poly id="228097475" type="building.yes" color="255,230,230" fill="1" layer="-1.00" shape="482.439470,131.991931 486.412165,131.408879 483.322884,110.556889 479.350257,111.128879 482.439470,131.991931"/>
    <poly id="228097476" type="building.yes" color="255,230,230" fill="1" layer="-1.00" shape="486.412165,131.408879 490.384860,130.825827 487.295582,109.973836 483.322884,110.556889 486.412165,131.408879"/>
    <poly id="228097477" type="building.yes" color="255,230,230" fill="1" layer="-1.00" shape="490.384860,130.825827 494.368369,130.242844 491.268280,109.390783 487.295582,109.973836 490.384860,130.825827"/>
    <poly id="228097478" type="building.yes" color="255,230,230" fill="1" layer="-1.00" shape="494.368369,130.242844 498.341065,129.659793 495.240978,108.807732 491.268280,109.390783 494.368369,130.242844"/>
    <poly id="228097480" type="amenity.parking" color="184,184,179" fill="1" layer="-1.00" shape="471.253045,105.600713 470.552679,98.438269 512.529529,92.544705 513.239113,96.576294 513.722662,100.440486 471.253045,105.600713"/>
    <poly id="228097991" type="building.yes" color="255,230,230" fill="1" layer="-1.00" shape="332.211366,81.633104 331.632867,77.392159 315.613515,79.535572 316.192016,83.776516 332.211366,81.633104"/>
    <poly id="228097992" type="building.yes" color="255,230,230" fill="1" layer="-1.00" shape="331.632867,77.392159 331.054369,73.151215 315.045828,75.294697 315.613515,79.535572 331.632867,77.392159"/>
    <poly id="228097993" type="building.yes" color="255,230,230" fill="1" layer="-1.00" shape="331.054369,73.151215 330.486755,68.899276 314.467398,71.042690 315.045828,75.294697 331.054369,73.151215"/>
    <poly id="228097994" type="building.yes" color="255,230,230" fill="1" layer="-1.00" shape="330.486755,68.899276 329.908256,64.658332 313.888896,66.801746 314.467398,71.042690 330.486755,68.899276"/>
    <poly id="228097995" type="building.yes" color="255,230,230" fill="1" layer="-1.00" shape="329.908256,64.658332 329.329757,60.417387 313.321208,62.560871 313.888896,66.801746 329.908256,64.658332"/>
    <poly id="228097996" type="building.yes" color="255,230,230" fill="1" layer="-1.00" shape="329.329757,60.417387 328.751257,56.176442 312.742706,58.319927 313.321208,62.560871 329.329757,60.417387"/>
    <poly id="228097997" type="building.yes" color="255,230,230" fill="1" layer="-1.00" shape="328.751257,56.176442 328.183642,51.924504 312.164275,54.067920 312.742706,58.319927 328.751257,56.176442"/>
    <poly id="228097998" type="building.yes" color="255,230,230" fill="1" layer="-1.00" shape="328.183642,51.924504 327.605142,47.683560 311.585772,49.826976 312.164275,54.067920 328.183642,51.924504"/>
    <poly id="228097999" type="building.yes" color="255,230,230" fill="1" layer="-1.00" shape="327.605142,47.683560 327.026641,43.442615 311.018083,45.586102 311.585772,49.826976 327.605142,47.683560"/>
    <poly id="228098000" type="building.yes" color="255,230,230" fill="1" layer="-1.00" shape="332.779050,85.873980 332.211366,81.633104 316.192016,83.776516 316.770516,88.017460 332.779050,85.873980"/>
    <poly id="228098468" type="building.yes" color="255,230,230" fill="1" layer="-1.00" shape="305.979495,4.829870 318.924684,3.131449 305.979495,4.829870"/>
    <poly id="228098469" type="building.yes" color="255,230,230" fill="1" layer="-1.00" shape="396.027954,17.475833 419.464153,13.963814 393.858582,3.267733 396.027954,17.475833"/>
    <poly id="229970774" type="building.yes" color="255,230,230" fill="1" layer="-1.00" shape="56.985361,236.519625 35.584159,146.615447 20.400227,141.573228 18.076706,249.746305 56.985361,236.519625"/>
    <poly id="229970774#1" type="tourism.hotel" color="207,245,201" fill="1" layer="-2.00" shape="56.985361,236.519625 35.584159,146.615447 20.400227,141.573228 18.076706,249.746305 56.985361,236.519625"/>
    <poly id="229970775" type="building.yes" color="255,230,230" fill="1" layer="-1.00" shape="508.154415,166.120915 530.273589,182.492416 537.526311,243.896000 528.038391,281.605402 520.538144,290.950130 510.021429,298.483289 496.533036,300.587465 483.890194,297.309228 474.684455,289.262585 464.183188,235.250657 350.285008,257.102081 337.254206,248.533178 334.234576,230.303665 330.964671,210.623259 347.865743,190.662519 463.967348,172.664125 508.154415,166.120915"/>
    <poly id="229970775#1" type="shop.mall" color="237,199,255" fill="1" layer="-1.00" shape="508.154415,166.120915 530.273589,182.492416 537.526311,243.896000 528.038391,281.605402 520.538144,290.950130 510.021429,298.483289 496.533036,300.587465 483.890194,297.309228 474.684455,289.262585 464.183188,235.250657 350.285008,257.102081 337.254206,248.533178 334.234576,230.303665 330.964671,210.623259 347.865743,190.662519 463.967348,172.664125 508.154415,166.120915"/>
    <poly id="230860263" type="building.yes" color="255,230,230" fill="0" layer="-1.00" shape="219.887260,241.233299 202.845939,267.930760 182.884026,272.737425 189.375768,299.341889"/>
    <poly id="230860263#1" type="tourism.hotel" color="207,245,201" fill="0" layer="-2.00" shape="219.887260,241.233299 202.845939,267.930760 182.884026,272.737425 189.375768,299.341889"/>
    <poly id="230860264" type="building.yes" color="255,230,230" fill="1" layer="-1.00" shape="114.004931,257.704885 159.391643,244.464416 114.004931,257.704885"/>
    <poly id="230860264#1" type="shop.mall" color="237,199,255" fill="1" layer="-1.00" shape="114.004931,257.704885 159.391643,244.464416 114.004931,257.704885"/>
    <poly id="230860266" type="building.yes" color="255,230,230" fill="1" layer="-1.00" shape="92.923118,332.878078 125.545550,323.494578 107.015705,259.872902 74.393276,269.245370 92.923118,332.878078"/>
    <poly id="230860266#1" type="shop.mall" color="237,199,255" fill="1" layer="-1.00" shape="92.923118,332.878078 125.545550,323.494578 107.015705,259.872902 74.393276,269.245370 92.923118,332.878078"/>
    <poly id="241883576" type="shop.mall" color="237,199,255" fill="1" layer="-1.00" shape="18.797428,248.655640 54.291306,236.712626 49.291311,222.043967 13.797487,233.975927 18.797428,248.655640"/>
    <poly id="303230139" type="building.yes" color="255,230,230" fill="1" layer="-1.00" shape="11.771549,293.837519 18.755988,299.192486 11.771549,293.837519"/>
    <poly id="303230139#1" type="shop.mall" color="237,199,255" fill="1" layer="-1.00" shape="11.771549,293.837519 18.755988,299.192486 11.771549,293.837519"/>
    <poly id="31141613" type="building.yes" color="255,230,230" fill="1" layer="-1.00" shape="230.134379,157.427918 232.654036,172.678186 251.276482,172.719777 273.972359,164.877162 283.099063,151.471473 286.885499,136.040249 282.553897,120.026084 277.397019,121.453471 217.482366,133.572028 226.005950,143.461775 216.005823,146.318575 204.239740,149.673005 199.527683,137.340507 190.996520,133.712547 39.508987,146.751136 64.446781,228.148103 70.643472,226.461799 100.481494,217.890221 148.833242,204.369954 175.856470,196.278323 209.054455,183.170252 204.074325,165.403958 230.134379,157.427918"/>
    <poly id="31141613#1" type="shop.mall" color="237,199,255" fill="1" layer="-1.00" shape="230.134379,157.427918 232.654036,172.678186 251.276482,172.719777 273.972359,164.877162 283.099063,151.471473 286.885499,136.040249 282.553897,120.026084 277.397019,121.453471 217.482366,133.572028 226.005950,143.461775 216.005823,146.318575 204.239740,149.673005 199.527683,137.340507 190.996520,133.712547 39.508987,146.751136 64.446781,228.148103 70.643472,226.461799 100.481494,217.890221 148.833242,204.369954 175.856470,196.278323 209.054455,183.170252 204.074325,165.403958 230.134379,157.427918"/>
    <poly id="333177944" type="building.yes" color="255,230,230" fill="1" layer="-1.00" shape="454.819150,326.274964"/>
    <poly id="333177951" type="building.yes" color="255,230,230" fill="0" layer="-1.00" shape="512.579578,312.760280 478.918525,320.488231"/>
    <poly id="37910306" type="landuse.residential" color="235,235,227" fill="1" layer="-3.00" shape="17.008229,112.178544 12.810341,53.162296 -0.839696,53.473455 -1.770905,35.013948"/>
    <poly id="435349532" type="natural.water" color="181,209,209" fill="1" layer="-4.00" shape="506.335113,65.145479 399.368917,100.427753 355.790083,104.861955 324.937510,108.005758 312.914618,109.234346 287.453246,111.516538 141.048620,124.509612 128.102385,128.077803 123.993581,133.041105 102.364227,136.454279 72.142925,137.290176 51.830613,132.602409 36.808772,132.661393 15.775839,135.823989 17.008229,112.178544 242.536397,95.187620 277.989225,93.102015 285.519004,92.663369 324.561285,94.118906 355.506968,89.946809 372.193911,86.568602 370.810429,83.063748 394.433873,79.010809 410.649167,76.669558 495.374487,45.714520 514.799088,43.792154"/>
    <poly id="449549796" type="building.apartments" color="255,230,230" fill="1" layer="-1.00" shape="552.206890,109.670303 570.480744,57.767619 541.562623,64.485950 552.206890,109.670303"/>
    <poly id="536840046" type="building.yes" color="255,230,230" fill="1" layer="-1.00" shape="464.843687,81.364232 470.940857,98.617766 491.838188,91.316980 485.741029,74.063440 464.843687,81.364232"/>
    <poly id="536866150" type="building.yes" color="255,230,230" fill="1" layer="-1.00" shape="-1.299359,111.939996"/>
    <poly id="536866151" type="building.yes" color="255,230,230" fill="1" layer="-1.00" shape="-2.506750,57.113700 1.445084,108.937235 15.662230,107.877397 11.721308,56.042863 -2.506750,57.113700"/>
    <poly id="536866176" type="leisure.park" color="207,245,201" fill="1" layer="-2.00" shape="-1.770905,35.013948 -0.839696,53.473455 12.810341,53.162296 17.008229,112.178544 146.151608,102.736455 277.989225,93.102015 273.297253,64.097235 268.626116,35.214287 33.692021,2.548278 5.495961,6.295779 -1.770905,35.013948"/>
    <poly id="536866212" type="building.yes" color="255,230,230" fill="1" layer="-1.00" shape="339.634099,267.024120 342.357033,280.914922 355.837855,278.301706 353.114857,264.421965 339.634099,267.024120"/>
    <poly id="536866213" type="building.yes" color="255,230,230" fill="1" layer="-1.00" shape="355.085997,263.969915 357.808923,277.860719 371.289679,275.258573 368.566759,261.367766 355.085997,263.969915"/>
    <poly id="536866214" type="building.yes" color="255,230,230" fill="1" layer="-1.00" shape="374.092146,259.809998 376.804249,273.700736 390.285010,271.098599 387.562100,257.207790 374.092146,259.809998"/>
    <poly id="536866215" type="building.yes" color="255,230,230" fill="1" layer="-1.00" shape="401.192781,254.838947 403.915685,268.729758 417.396453,266.127635 414.673556,252.236822 401.192781,254.838947"/>
    <poly id="536866216" type="building.yes" color="255,230,230" fill="1" layer="-1.00" shape="414.839378,251.673654 417.562275,265.564468 431.043046,262.962351 428.320155,249.071535 414.839378,251.673654"/>
    <poly id="536866217" type="building.yes" color="255,230,230" fill="1" layer="-1.00" shape="424.889304,271.452782 427.612263,285.332535 441.093026,282.730425 438.370144,268.839607 424.889304,271.452782"/>
    <poly id="536866218" type="building.yes" color="255,230,230" fill="1" layer="-1.00" shape="343.826439,286.201518 346.549368,300.092321 360.030110,297.490170 357.307188,283.599365 343.826439,286.201518"/>
    <poly id="536866219" type="building.yes" color="255,230,230" fill="1" layer="-1.00" shape="352.292527,323.660711 355.004631,337.551447 368.485427,334.938240 365.762445,321.058495 352.292527,323.660711"/>
    <poly id="536866220" type="building.yes" color="255,230,230" fill="1" layer="-1.00" shape="365.947148,319.234231 368.670059,333.125039 382.150859,330.511838 379.427955,316.621029 365.947148,319.234231"/>
    <poly id="539387188" type="building.yes" color="255,230,230" fill="1" layer="-1.00" shape="451.563894,111.692281 420.623855,116.671921 421.851509,124.247079 452.791540,119.267442 451.563894,111.692281"/>
    <poly id="539387189" type="building.yes" color="255,230,230" fill="1" layer="-1.00" shape="396.132206,111.061011 350.610933,116.533806 352.306399,130.440161 397.827649,124.967371 396.132206,111.061011"/>
    <poly id="539387190" type="building.yes" color="255,230,230" fill="1" layer="-1.00" shape="333.400683,51.238751 337.967988,79.435131 393.579622,70.541914 389.012373,42.345519 360.627325,46.887986 333.400683,51.238751"/>
    <poly id="539387195" type="building.yes" color="255,230,230" fill="1" layer="-1.00" shape="423.536936,14.642607 409.163274,16.486724 415.739133,67.110237 430.101954,65.266057 423.536936,14.642607"/>
    <poly id="539806478" type="building.commercial" color="255,230,230" fill="0" layer="-1.00" shape="501.656903,5.307269 505.391901,23.275869 486.700045,30.679273 448.081142,45.854366 443.519252,16.828241"/>